3-[[2-(2,2-dimethyl-3,4-dihydrochromen-6-yl)acetyl]amino]propanoic acid
     RDKit          3D

 41 42  0  0  0  0  0  0  0  0999 V2000
   -3.4209   -0.6460    2.0592 C   0  0  0  0  0  0  0  0  0  0  0  0
   -3.7290    0.3030    0.8906 C   0  0  0  0  0  0  0  0  0  0  0  0
   -4.0387   -0.4411   -0.4168 C   0  0  0  0  0  0  0  0  0  0  0  0
   -2.8196   -1.1985   -0.9196 C   0  0  0  0  0  0  0  0  0  0  0  0
   -1.5971   -0.3362   -0.8336 C   0  0  0  0  0  0  0  0  0  0  0  0
   -1.5729    0.7974   -0.0164 C   0  0  0  0  0  0  0  0  0  0  0  0
   -2.6373    1.2247    0.7312 O   0  0  0  0  0  0  0  0  0  0  0  0
   -0.4208    1.5785    0.0644 C   0  0  0  0  0  0  0  0  0  0  0  0
    0.7222    1.2259   -0.6546 C   0  0  0  0  0  0  0  0  0  0  0  0
    0.7187    0.0901   -1.4736 C   0  0  0  0  0  0  0  0  0  0  0  0
   -0.4425   -0.6917   -1.5476 C   0  0  0  0  0  0  0  0  0  0  0  0
    1.9601   -0.3007   -2.2371 C   0  0  0  0  0  0  0  0  0  0  0  0
    2.9664   -1.0425   -1.3746 C   0  0  0  0  0  0  0  0  0  0  0  0
    2.7933   -2.2062   -1.0167 O   0  0  0  0  0  0  0  0  0  0  0  0
    4.0785   -0.2944   -1.0674 N   0  0  0  0  0  0  0  0  0  0  0  0
    4.9930   -0.6454    0.0016 C   0  0  0  0  0  0  0  0  0  0  0  0
    4.6369    0.0788    1.2902 C   0  0  0  0  0  0  0  0  0  0  0  0
    4.8409    1.5842    1.1169 C   0  0  0  0  0  0  0  0  0  0  0  0
    4.3228    2.0867    0.0730 O   0  0  0  0  0  0  0  0  0  0  0  0
    5.4957    2.1474    2.0362 O   0  0  0  0  0  0  0  0  0  0  0  0
   -4.9467    1.1594    1.2699 C   0  0  0  0  0  0  0  0  0  0  0  0
   -4.2438   -1.3474    2.2318 H   0  0  0  0  0  0  0  0  0  0  0  0
   -2.5064   -1.2235    1.8905 H   0  0  0  0  0  0  0  0  0  0  0  0
   -3.2507   -0.0790    2.9820 H   0  0  0  0  0  0  0  0  0  0  0  0
   -4.3276    0.2888   -1.1861 H   0  0  0  0  0  0  0  0  0  0  0  0
   -4.8828   -1.1299   -0.2942 H   0  0  0  0  0  0  0  0  0  0  0  0
   -2.9938   -1.5096   -1.9564 H   0  0  0  0  0  0  0  0  0  0  0  0
   -2.6607   -2.1054   -0.3246 H   0  0  0  0  0  0  0  0  0  0  0  0
   -0.3996    2.4567    0.7039 H   0  0  0  0  0  0  0  0  0  0  0  0
    1.6215    1.8356   -0.5555 H   0  0  0  0  0  0  0  0  0  0  0  0
   -0.4429   -1.5917   -2.1594 H   0  0  0  0  0  0  0  0  0  0  0  0
    2.4135    0.5945   -2.6806 H   0  0  0  0  0  0  0  0  0  0  0  0
    1.7050   -0.9489   -3.0846 H   0  0  0  0  0  0  0  0  0  0  0  0
    3.9884    0.7271   -1.1406 H   0  0  0  0  0  0  0  0  0  0  0  0
    5.9969   -0.3648   -0.3347 H   0  0  0  0  0  0  0  0  0  0  0  0
    4.9721   -1.7284    0.1602 H   0  0  0  0  0  0  0  0  0  0  0  0
    3.5928   -0.1014    1.5708 H   0  0  0  0  0  0  0  0  0  0  0  0
    5.2724   -0.2895    2.1035 H   0  0  0  0  0  0  0  0  0  0  0  0
   -4.7514    1.7357    2.1818 H   0  0  0  0  0  0  0  0  0  0  0  0
   -5.8389    0.5455    1.4317 H   0  0  0  0  0  0  0  0  0  0  0  0
   -5.1672    1.8927    0.4854 H   0  0  0  0  0  0  0  0  0  0  0  0
  1  2  1  0
  2  3  1  0
  3  4  1  0
  4  5  1  0
  5  6  2  0
  6  7  1  0
  6  8  1  0
  8  9  2  0
  9 10  1  0
 10 11  2  0
 10 12  1  0
 12 13  1  0
 13 14  2  0
 13 15  1  0
 15 16  1  0
 16 17  1  0
 17 18  1  0
 18 19  2  0
 18 20  1  0
  2 21  1  0
  7  2  1  0
 11  5  1  0
  1 22  1  0
  1 23  1  0
  1 24  1  0
  3 25  1  0
  3 26  1  0
  4 27  1  0
  4 28  1  0
  8 29  1  0
  9 30  1  0
 11 31  1  0
 12 32  1  0
 12 33  1  0
 15 34  1  0
 16 35  1  0
 16 36  1  0
 17 37  1  0
 17 38  1  0
 21 39  1  0
 21 40  1  0
 21 41  1  0
M  CHG  1  20  -1
M  END
>  <SMILES_raw>  (4) 
CC1(CCC2=C(O1)C=CC(=C2)CC(=O)NCCC(=O)O)C

>  <SMILES_pH7.4>  (4) 
CC1(CCc2c(O1)ccc(c2)CC(=O)NCCC(=O)[O-])C

$$$$