Ertiprotafib
     RDKit          3D

 62 66  0  0  0  0  0  0  0  0999 V2000
   -1.1091    0.9141   -2.2534 C   0  0  0  0  0  0  0  0  0  0  0  0
   -0.4364    0.3341   -1.0445 C   0  0  0  0  0  0  0  0  0  0  0  0
    0.9535    0.1366   -1.0689 C   0  0  0  0  0  0  0  0  0  0  0  0
    1.6368   -0.3768    0.0438 C   0  0  0  0  0  0  0  0  0  0  0  0
    0.8999   -0.7014    1.1917 C   0  0  0  0  0  0  0  0  0  0  0  0
   -0.4907   -0.5137    1.2430 C   0  0  0  0  0  0  0  0  0  0  0  0
   -1.1588   -0.0474    0.1001 C   0  0  0  0  0  0  0  0  0  0  0  0
   -2.5224    0.1158    0.1460 O   0  0  0  0  0  0  0  0  0  0  0  0
   -3.2282   -0.9553   -0.5350 C   0  0  2  0  0  0  0  0  0  0  0  0
   -4.3516   -0.3902   -1.4180 C   0  0  0  0  0  0  0  0  0  0  0  0
   -5.3347    0.5530   -0.7565 C   0  0  0  0  0  0  0  0  0  0  0  0
   -5.1363    1.9398   -0.8003 C   0  0  0  0  0  0  0  0  0  0  0  0
   -6.0515    2.8082   -0.2017 C   0  0  0  0  0  0  0  0  0  0  0  0
   -7.1716    2.2986    0.4523 C   0  0  0  0  0  0  0  0  0  0  0  0
   -7.3725    0.9210    0.5131 C   0  0  0  0  0  0  0  0  0  0  0  0
   -6.4591    0.0530   -0.0878 C   0  0  0  0  0  0  0  0  0  0  0  0
   -3.8587   -2.0027    0.4162 C   0  0  0  0  0  0  0  0  0  0  0  0
   -4.0602   -1.6803    1.6195 O   0  0  0  0  0  0  0  0  0  0  0  0
   -4.1214   -3.1134   -0.1466 O   0  0  0  0  0  0  0  0  0  0  0  0
   -1.2258   -0.8692    2.5040 C   0  0  0  0  0  0  0  0  0  0  0  0
    3.0902   -0.6132   -0.0120 C   0  0  0  0  0  0  0  0  0  0  0  0
    3.9777    0.4503    0.3770 C   0  0  0  0  0  0  0  0  0  0  0  0
    3.7314    1.8156    0.8741 C   0  0  0  0  0  0  0  0  0  0  0  0
    4.9095    2.5011    1.1171 C   0  0  0  0  0  0  0  0  0  0  0  0
    6.2762    1.5666    0.7773 S   0  0  0  0  0  0  0  0  0  0  0  0
    5.3525    0.1919    0.2880 C   0  0  0  0  0  0  0  0  0  0  0  0
    5.8586   -1.0583   -0.1564 C   0  0  0  0  0  0  0  0  0  0  0  0
    4.9799   -2.1076   -0.5308 C   0  0  0  0  0  0  0  0  0  0  0  0
    5.4284   -3.3811   -0.9792 C   0  0  0  0  0  0  0  0  0  0  0  0
    4.5508   -4.4019   -1.3428 C   0  0  0  0  0  0  0  0  0  0  0  0
    3.1905   -4.1813   -1.2696 C   0  0  0  0  0  0  0  0  0  0  0  0
    2.7230   -2.9426   -0.8348 C   0  0  0  0  0  0  0  0  0  0  0  0
    3.5903   -1.8825   -0.4575 C   0  0  0  0  0  0  0  0  0  0  0  0
    7.7656   -1.3035   -0.2416 Br  0  0  0  0  0  0  0  0  0  0  0  0
    5.0865    3.8975    1.6223 C   0  0  0  0  0  0  0  0  0  0  0  0
    2.3807    2.4297    1.1087 C   0  0  0  0  0  0  0  0  0  0  0  0
   -0.4007    1.4890   -2.8600 H   0  0  0  0  0  0  0  0  0  0  0  0
   -1.9051    1.6064   -1.9638 H   0  0  0  0  0  0  0  0  0  0  0  0
   -1.5222    0.1160   -2.8767 H   0  0  0  0  0  0  0  0  0  0  0  0
    1.5160    0.3905   -1.9654 H   0  0  0  0  0  0  0  0  0  0  0  0
    1.4145   -1.1067    2.0610 H   0  0  0  0  0  0  0  0  0  0  0  0
   -2.5412   -1.5102   -1.1913 H   0  0  0  0  0  0  0  0  0  0  0  0
   -4.9169   -1.2072   -1.8864 H   0  0  0  0  0  0  0  0  0  0  0  0
   -3.8977    0.1515   -2.2572 H   0  0  0  0  0  0  0  0  0  0  0  0
   -4.2543    2.3457   -1.2877 H   0  0  0  0  0  0  0  0  0  0  0  0
   -5.8791    3.8793   -0.2331 H   0  0  0  0  0  0  0  0  0  0  0  0
   -7.8760    2.9705    0.9322 H   0  0  0  0  0  0  0  0  0  0  0  0
   -8.2263    0.5126    1.0452 H   0  0  0  0  0  0  0  0  0  0  0  0
   -6.6095   -1.0230   -0.0073 H   0  0  0  0  0  0  0  0  0  0  0  0
   -2.0813   -0.2070    2.6670 H   0  0  0  0  0  0  0  0  0  0  0  0
   -0.5739   -0.7516    3.3769 H   0  0  0  0  0  0  0  0  0  0  0  0
   -1.5577   -1.9103    2.4647 H   0  0  0  0  0  0  0  0  0  0  0  0
    6.4896   -3.6062   -1.0529 H   0  0  0  0  0  0  0  0  0  0  0  0
    4.9340   -5.3614   -1.6778 H   0  0  0  0  0  0  0  0  0  0  0  0
    2.4849   -4.9613   -1.5432 H   0  0  0  0  0  0  0  0  0  0  0  0
    1.6407   -2.8161   -0.7893 H   0  0  0  0  0  0  0  0  0  0  0  0
    4.6032    4.6092    0.9447 H   0  0  0  0  0  0  0  0  0  0  0  0
    6.1401    4.1841    1.7065 H   0  0  0  0  0  0  0  0  0  0  0  0
    4.6344    4.0009    2.6144 H   0  0  0  0  0  0  0  0  0  0  0  0
    1.8167    2.4940    0.1750 H   0  0  0  0  0  0  0  0  0  0  0  0
    2.4565    3.4500    1.4976 H   0  0  0  0  0  0  0  0  0  0  0  0
    1.8183    1.8568    1.8500 H   0  0  0  0  0  0  0  0  0  0  0  0
  1  2  1  0
  2  3  2  0
  3  4  1  0
  4  5  2  0
  5  6  1  0
  6  7  2  0
  7  8  1  0
  8  9  1  0
  9 10  1  0
 10 11  1  0
 11 12  2  0
 12 13  1  0
 13 14  2  0
 14 15  1  0
 15 16  2  0
  9 17  1  0
 17 18  2  0
 17 19  1  0
  6 20  1  0
  4 21  1  0
 21 22  2  0
 22 23  1  0
 23 24  2  0
 24 25  1  0
 25 26  1  0
 26 27  2  0
 27 28  1  0
 28 29  2  0
 29 30  1  0
 30 31  2  0
 31 32  1  0
 32 33  2  0
 27 34  1  0
 24 35  1  0
 23 36  1  0
  7  2  1  0
 16 11  1  0
 33 21  1  0
 26 22  1  0
 33 28  1  0
  1 37  1  0
  1 38  1  0
  1 39  1  0
  3 40  1  0
  5 41  1  0
  9 42  1  6
 10 43  1  0
 10 44  1  0
 12 45  1  0
 13 46  1  0
 14 47  1  0
 15 48  1  0
 16 49  1  0
 20 50  1  0
 20 51  1  0
 20 52  1  0
 29 53  1  0
 30 54  1  0
 31 55  1  0
 32 56  1  0
 35 57  1  0
 35 58  1  0
 35 59  1  0
 36 60  1  0
 36 61  1  0
 36 62  1  0
M  CHG  1  19  -1
M  END
>  <SMILES_raw>  (1) 
CC1=CC(=CC(=C1O[C@H](CC2=CC=CC=C2)C(=O)O)C)C3=C4C(=C(SC4=C(C5=CC=CC=C53)Br)C)C

>  <SMILES_pH7.4>  (1) 
Cc1cc(cc(c1O[C@H](Cc1ccccc1)C(=O)[O-])C)c1c2c(c(sc2c(c2ccccc12)Br)C)C

$$$$
ethyl 1-[(4R)-3-[(2S)-5-oxopyrrolidine-2-carbonyl]-1,3-thiazolidine-4-carbonyl]piperidine-4-carboxylate
     RDKit          3D

 51 53  0  0  0  0  0  0  0  0999 V2000
    3.5920    2.6553   -1.6448 C   0  0  0  0  0  0  0  0  0  0  0  0
    3.4424    3.1907   -0.2329 C   0  0  0  0  0  0  0  0  0  0  0  0
    3.3675    2.1057    0.7044 O   0  0  0  0  0  0  0  0  0  0  0  0
    2.1281    1.5727    0.8938 C   0  0  0  0  0  0  0  0  0  0  0  0
    1.1112    1.9299    0.3158 O   0  0  0  0  0  0  0  0  0  0  0  0
    2.2042    0.4334    1.8959 C   0  0  0  0  0  0  0  0  0  0  0  0
    0.8701    0.2678    2.6355 C   0  0  0  0  0  0  0  0  0  0  0  0
   -0.1361   -0.5434    1.8222 C   0  0  0  0  0  0  0  0  0  0  0  0
    0.3954   -1.8257    1.3625 N   0  0  0  0  0  0  0  0  0  0  0  0
    1.8224   -2.0629    1.5678 C   0  0  0  0  0  0  0  0  0  0  0  0
    2.6481   -0.8447    1.1719 C   0  0  0  0  0  0  0  0  0  0  0  0
   -0.3954   -2.8757    0.8950 C   0  0  0  0  0  0  0  0  0  0  0  0
    0.0892   -3.9996    0.7321 O   0  0  0  0  0  0  0  0  0  0  0  0
   -1.8972   -2.6056    0.5818 C   0  0  2  0  0  0  0  0  0  0  0  0
   -2.6280   -3.8872    0.1743 C   0  0  0  0  0  0  0  0  0  0  0  0
   -2.4183   -4.0212   -1.6316 S   0  0  0  0  0  0  0  0  0  0  0  0
   -1.8592   -2.3134   -1.8276 C   0  0  0  0  0  0  0  0  0  0  0  0
   -2.0613   -1.6728   -0.5452 N   0  0  0  0  0  0  0  0  0  0  0  0
   -2.6221   -0.4252   -0.3613 C   0  0  0  0  0  0  0  0  0  0  0  0
   -3.0751   -0.0874    0.7367 O   0  0  0  0  0  0  0  0  0  0  0  0
   -2.6734    0.5398   -1.5664 C   0  0  2  0  0  0  0  0  0  0  0  0
   -1.3057    0.8406   -2.1695 C   0  0  0  0  0  0  0  0  0  0  0  0
   -1.3534    2.3184   -2.5466 C   0  0  0  0  0  0  0  0  0  0  0  0
   -2.3696    2.8768   -1.5920 C   0  0  0  0  0  0  0  0  0  0  0  0
   -2.5213    4.0489   -1.2994 O   0  0  0  0  0  0  0  0  0  0  0  0
   -3.1445    1.8355   -1.1418 N   0  0  0  0  0  0  0  0  0  0  0  0
    4.4600    1.9915   -1.7143 H   0  0  0  0  0  0  0  0  0  0  0  0
    3.7154    3.4745   -2.3588 H   0  0  0  0  0  0  0  0  0  0  0  0
    2.7168    2.0665   -1.9378 H   0  0  0  0  0  0  0  0  0  0  0  0
    4.3253    3.7813    0.0322 H   0  0  0  0  0  0  0  0  0  0  0  0
    2.5733    3.8526   -0.1438 H   0  0  0  0  0  0  0  0  0  0  0  0
    2.9528    0.7150    2.6485 H   0  0  0  0  0  0  0  0  0  0  0  0
    1.0553   -0.2495    3.5860 H   0  0  0  0  0  0  0  0  0  0  0  0
    0.4381    1.2429    2.8901 H   0  0  0  0  0  0  0  0  0  0  0  0
   -1.0308   -0.7220    2.4253 H   0  0  0  0  0  0  0  0  0  0  0  0
   -0.4236    0.0222    0.9359 H   0  0  0  0  0  0  0  0  0  0  0  0
    1.9694   -2.3084    2.6264 H   0  0  0  0  0  0  0  0  0  0  0  0
    2.1597   -2.9282    0.9874 H   0  0  0  0  0  0  0  0  0  0  0  0
    2.5803   -0.7147    0.0835 H   0  0  0  0  0  0  0  0  0  0  0  0
    3.7057   -1.0369    1.3892 H   0  0  0  0  0  0  0  0  0  0  0  0
   -2.3550   -2.2226    1.4994 H   0  0  0  0  0  0  0  0  0  0  0  0
   -2.2732   -4.7878    0.6825 H   0  0  0  0  0  0  0  0  0  0  0  0
   -3.7014   -3.7861    0.3668 H   0  0  0  0  0  0  0  0  0  0  0  0
   -0.7910   -2.2963   -2.0625 H   0  0  0  0  0  0  0  0  0  0  0  0
   -2.4200   -1.8304   -2.6290 H   0  0  0  0  0  0  0  0  0  0  0  0
   -3.3896    0.1690   -2.3061 H   0  0  0  0  0  0  0  0  0  0  0  0
   -1.0840    0.2145   -3.0392 H   0  0  0  0  0  0  0  0  0  0  0  0
   -0.5054    0.6709   -1.4403 H   0  0  0  0  0  0  0  0  0  0  0  0
   -1.7099    2.4615   -3.5711 H   0  0  0  0  0  0  0  0  0  0  0  0
   -0.3813    2.7991   -2.4122 H   0  0  0  0  0  0  0  0  0  0  0  0
   -3.7972    1.9706   -0.3764 H   0  0  0  0  0  0  0  0  0  0  0  0
  1  2  1  0
  2  3  1  0
  3  4  1  0
  4  5  2  0
  4  6  1  0
  6  7  1  0
  7  8  1  0
  8  9  1  0
  9 10  1  0
 10 11  1  0
  9 12  1  0
 12 13  2  0
 12 14  1  0
 14 15  1  0
 15 16  1  0
 16 17  1  0
 17 18  1  0
 18 19  1  0
 19 20  2  0
 19 21  1  0
 21 22  1  0
 22 23  1  0
 23 24  1  0
 24 25  2  0
 24 26  1  0
 11  6  1  0
 18 14  1  0
 26 21  1  0
  1 27  1  0
  1 28  1  0
  1 29  1  0
  2 30  1  0
  2 31  1  0
  6 32  1  0
  7 33  1  0
  7 34  1  0
  8 35  1  0
  8 36  1  0
 10 37  1  0
 10 38  1  0
 11 39  1  0
 11 40  1  0
 14 41  1  1
 15 42  1  0
 15 43  1  0
 17 44  1  0
 17 45  1  0
 21 46  1  6
 22 47  1  0
 22 48  1  0
 23 49  1  0
 23 50  1  0
 26 51  1  0
M  END
>  <SMILES_raw>  (2) 
CCOC(=O)C1CCN(CC1)C(=O)[C@@H]2CSCN2C(=O)[C@@H]3CCC(=O)N3

>  <SMILES_pH7.4>  (2) 
CCOC(=O)C1CCN(CC1)C(=O)[C@@H]1CSCN1C(=O)[C@@H]1CCC(=O)N1

$$$$
Acetaminophen
     RDKit          3D

 20 20  0  0  0  0  0  0  0  0999 V2000
    3.7061   -0.0059    0.1864 C   0  0  0  0  0  0  0  0  0  0  0  0
    2.3313    0.5074   -0.1639 C   0  0  0  0  0  0  0  0  0  0  0  0
    2.1916    1.5845   -0.7319 O   0  0  0  0  0  0  0  0  0  0  0  0
    1.3310   -0.3517    0.2539 N   0  0  0  0  0  0  0  0  0  0  0  0
   -0.0612   -0.1898    0.0985 C   0  0  0  0  0  0  0  0  0  0  0  0
   -0.8838   -1.1986    0.6188 C   0  0  0  0  0  0  0  0  0  0  0  0
   -2.2737   -1.1135    0.5050 C   0  0  0  0  0  0  0  0  0  0  0  0
   -2.8448   -0.0196   -0.1296 C   0  0  0  0  0  0  0  0  0  0  0  0
   -2.0473    0.9907   -0.6527 C   0  0  0  0  0  0  0  0  0  0  0  0
   -0.6549    0.9033   -0.5377 C   0  0  0  0  0  0  0  0  0  0  0  0
   -4.2035    0.0266   -0.2202 O   0  0  0  0  0  0  0  0  0  0  0  0
    3.7600   -1.0921    0.0694 H   0  0  0  0  0  0  0  0  0  0  0  0
    3.9417    0.2654    1.2187 H   0  0  0  0  0  0  0  0  0  0  0  0
    4.4435    0.4437   -0.4850 H   0  0  0  0  0  0  0  0  0  0  0  0
    1.6252   -1.1923    0.7345 H   0  0  0  0  0  0  0  0  0  0  0  0
   -0.4591   -2.0642    1.1197 H   0  0  0  0  0  0  0  0  0  0  0  0
   -2.9066   -1.8978    0.9102 H   0  0  0  0  0  0  0  0  0  0  0  0
   -2.4804    1.8519   -1.1519 H   0  0  0  0  0  0  0  0  0  0  0  0
   -0.0615    1.7093   -0.9580 H   0  0  0  0  0  0  0  0  0  0  0  0
   -4.4538    0.8428   -0.6840 H   0  0  0  0  0  0  0  0  0  0  0  0
  1  2  1  0
  2  3  2  0
  2  4  1  0
  4  5  1  0
  5  6  2  0
  6  7  1  0
  7  8  2  0
  8  9  1  0
  9 10  2  0
  8 11  1  0
 10  5  1  0
  1 12  1  0
  1 13  1  0
  1 14  1  0
  4 15  1  0
  6 16  1  0
  7 17  1  0
  9 18  1  0
 10 19  1  0
 11 20  1  0
M  END
>  <SMILES_raw>  (3) 
CC(=O)NC1=CC=C(C=C1)O

>  <SMILES_pH7.4>  (3) 
CC(=O)Nc1ccc(cc1)O

$$$$
3-[[2-(2,2-dimethyl-3,4-dihydrochromen-6-yl)acetyl]amino]propanoic acid
     RDKit          3D

 41 42  0  0  0  0  0  0  0  0999 V2000
   -3.4209   -0.6460    2.0592 C   0  0  0  0  0  0  0  0  0  0  0  0
   -3.7290    0.3030    0.8906 C   0  0  0  0  0  0  0  0  0  0  0  0
   -4.0387   -0.4411   -0.4168 C   0  0  0  0  0  0  0  0  0  0  0  0
   -2.8196   -1.1985   -0.9196 C   0  0  0  0  0  0  0  0  0  0  0  0
   -1.5971   -0.3362   -0.8336 C   0  0  0  0  0  0  0  0  0  0  0  0
   -1.5729    0.7974   -0.0164 C   0  0  0  0  0  0  0  0  0  0  0  0
   -2.6373    1.2247    0.7312 O   0  0  0  0  0  0  0  0  0  0  0  0
   -0.4208    1.5785    0.0644 C   0  0  0  0  0  0  0  0  0  0  0  0
    0.7222    1.2259   -0.6546 C   0  0  0  0  0  0  0  0  0  0  0  0
    0.7187    0.0901   -1.4736 C   0  0  0  0  0  0  0  0  0  0  0  0
   -0.4425   -0.6917   -1.5476 C   0  0  0  0  0  0  0  0  0  0  0  0
    1.9601   -0.3007   -2.2371 C   0  0  0  0  0  0  0  0  0  0  0  0
    2.9664   -1.0425   -1.3746 C   0  0  0  0  0  0  0  0  0  0  0  0
    2.7933   -2.2062   -1.0167 O   0  0  0  0  0  0  0  0  0  0  0  0
    4.0785   -0.2944   -1.0674 N   0  0  0  0  0  0  0  0  0  0  0  0
    4.9930   -0.6454    0.0016 C   0  0  0  0  0  0  0  0  0  0  0  0
    4.6369    0.0788    1.2902 C   0  0  0  0  0  0  0  0  0  0  0  0
    4.8409    1.5842    1.1169 C   0  0  0  0  0  0  0  0  0  0  0  0
    4.3228    2.0867    0.0730 O   0  0  0  0  0  0  0  0  0  0  0  0
    5.4957    2.1474    2.0362 O   0  0  0  0  0  0  0  0  0  0  0  0
   -4.9467    1.1594    1.2699 C   0  0  0  0  0  0  0  0  0  0  0  0
   -4.2438   -1.3474    2.2318 H   0  0  0  0  0  0  0  0  0  0  0  0
   -2.5064   -1.2235    1.8905 H   0  0  0  0  0  0  0  0  0  0  0  0
   -3.2507   -0.0790    2.9820 H   0  0  0  0  0  0  0  0  0  0  0  0
   -4.3276    0.2888   -1.1861 H   0  0  0  0  0  0  0  0  0  0  0  0
   -4.8828   -1.1299   -0.2942 H   0  0  0  0  0  0  0  0  0  0  0  0
   -2.9938   -1.5096   -1.9564 H   0  0  0  0  0  0  0  0  0  0  0  0
   -2.6607   -2.1054   -0.3246 H   0  0  0  0  0  0  0  0  0  0  0  0
   -0.3996    2.4567    0.7039 H   0  0  0  0  0  0  0  0  0  0  0  0
    1.6215    1.8356   -0.5555 H   0  0  0  0  0  0  0  0  0  0  0  0
   -0.4429   -1.5917   -2.1594 H   0  0  0  0  0  0  0  0  0  0  0  0
    2.4135    0.5945   -2.6806 H   0  0  0  0  0  0  0  0  0  0  0  0
    1.7050   -0.9489   -3.0846 H   0  0  0  0  0  0  0  0  0  0  0  0
    3.9884    0.7271   -1.1406 H   0  0  0  0  0  0  0  0  0  0  0  0
    5.9969   -0.3648   -0.3347 H   0  0  0  0  0  0  0  0  0  0  0  0
    4.9721   -1.7284    0.1602 H   0  0  0  0  0  0  0  0  0  0  0  0
    3.5928   -0.1014    1.5708 H   0  0  0  0  0  0  0  0  0  0  0  0
    5.2724   -0.2895    2.1035 H   0  0  0  0  0  0  0  0  0  0  0  0
   -4.7514    1.7357    2.1818 H   0  0  0  0  0  0  0  0  0  0  0  0
   -5.8389    0.5455    1.4317 H   0  0  0  0  0  0  0  0  0  0  0  0
   -5.1672    1.8927    0.4854 H   0  0  0  0  0  0  0  0  0  0  0  0
  1  2  1  0
  2  3  1  0
  3  4  1  0
  4  5  1  0
  5  6  2  0
  6  7  1  0
  6  8  1  0
  8  9  2  0
  9 10  1  0
 10 11  2  0
 10 12  1  0
 12 13  1  0
 13 14  2  0
 13 15  1  0
 15 16  1  0
 16 17  1  0
 17 18  1  0
 18 19  2  0
 18 20  1  0
  2 21  1  0
  7  2  1  0
 11  5  1  0
  1 22  1  0
  1 23  1  0
  1 24  1  0
  3 25  1  0
  3 26  1  0
  4 27  1  0
  4 28  1  0
  8 29  1  0
  9 30  1  0
 11 31  1  0
 12 32  1  0
 12 33  1  0
 15 34  1  0
 16 35  1  0
 16 36  1  0
 17 37  1  0
 17 38  1  0
 21 39  1  0
 21 40  1  0
 21 41  1  0
M  CHG  1  20  -1
M  END
>  <SMILES_raw>  (4) 
CC1(CCC2=C(O1)C=CC(=C2)CC(=O)NCCC(=O)O)C

>  <SMILES_pH7.4>  (4) 
CC1(CCc2c(O1)ccc(c2)CC(=O)NCCC(=O)[O-])C

$$$$
methyl (3R)-3-[4-hydroxy-1-[2-(4-hydroxyphenyl)ethyl]-6-methyl-2-oxopyridin-3-yl]-3-pyridin-4-ylpropanoate
     RDKit          3D

 54 56  0  0  0  0  0  0  0  0999 V2000
   -5.9850    2.9141   -0.3294 C   0  0  0  0  0  0  0  0  0  0  0  0
   -4.6128    2.5418   -0.4550 O   0  0  0  0  0  0  0  0  0  0  0  0
   -4.3771    1.6070   -1.4154 C   0  0  0  0  0  0  0  0  0  0  0  0
   -5.2263    1.1231   -2.1526 O   0  0  0  0  0  0  0  0  0  0  0  0
   -2.9171    1.2339   -1.4494 C   0  0  0  0  0  0  0  0  0  0  0  0
   -2.7308   -0.2287   -1.0070 C   0  0  2  0  0  0  0  0  0  0  0  0
   -3.0840   -0.5118    0.4524 C   0  0  0  0  0  0  0  0  0  0  0  0
   -2.7426    0.3472    1.5014 C   0  0  0  0  0  0  0  0  0  0  0  0
   -3.0950   -0.0008    2.7975 C   0  0  0  0  0  0  0  0  0  0  0  0
   -3.7554   -1.1320    3.1226 N   0  0  0  0  0  0  0  0  0  0  0  0
   -4.0692   -1.9564    2.1028 C   0  0  0  0  0  0  0  0  0  0  0  0
   -3.7575   -1.6974    0.7767 C   0  0  0  0  0  0  0  0  0  0  0  0
   -1.3657   -0.7968   -1.3738 C   0  0  0  0  0  0  0  0  0  0  0  0
   -1.2059   -1.9180   -2.0969 C   0  0  0  0  0  0  0  0  0  0  0  0
   -2.2871   -2.6386   -2.5583 O   0  0  0  0  0  0  0  0  0  0  0  0
    0.0937   -2.4443   -2.4161 C   0  0  0  0  0  0  0  0  0  0  0  0
    1.2115   -1.8180   -2.0152 C   0  0  0  0  0  0  0  0  0  0  0  0
    2.5624   -2.3905   -2.3503 C   0  0  0  0  0  0  0  0  0  0  0  0
    1.1089   -0.6338   -1.2845 N   0  0  0  0  0  0  0  0  0  0  0  0
    2.3021    0.0673   -0.7906 C   0  0  0  0  0  0  0  0  0  0  0  0
    2.6499   -0.3368    0.6473 C   0  0  0  0  0  0  0  0  0  0  0  0
    3.8940    0.3621    1.1368 C   0  0  0  0  0  0  0  0  0  0  0  0
    5.1466   -0.2612    1.0451 C   0  0  0  0  0  0  0  0  0  0  0  0
    6.2989    0.3972    1.4813 C   0  0  0  0  0  0  0  0  0  0  0  0
    6.1965    1.6816    2.0056 C   0  0  0  0  0  0  0  0  0  0  0  0
    7.2953    2.3602    2.4429 O   0  0  0  0  0  0  0  0  0  0  0  0
    4.9641    2.3160    2.0994 C   0  0  0  0  0  0  0  0  0  0  0  0
    3.8129    1.6584    1.6646 C   0  0  0  0  0  0  0  0  0  0  0  0
   -0.1284   -0.0818   -0.9181 C   0  0  0  0  0  0  0  0  0  0  0  0
   -0.2175    0.9513   -0.2555 O   0  0  0  0  0  0  0  0  0  0  0  0
   -6.5991    2.0430   -0.0808 H   0  0  0  0  0  0  0  0  0  0  0  0
   -6.0665    3.6376    0.4864 H   0  0  0  0  0  0  0  0  0  0  0  0
   -6.3378    3.3886   -1.2501 H   0  0  0  0  0  0  0  0  0  0  0  0
   -2.5762    1.3780   -2.4823 H   0  0  0  0  0  0  0  0  0  0  0  0
   -2.3528    1.9474   -0.8414 H   0  0  0  0  0  0  0  0  0  0  0  0
   -3.4817   -0.7815   -1.5914 H   0  0  0  0  0  0  0  0  0  0  0  0
   -2.2004    1.2721    1.3346 H   0  0  0  0  0  0  0  0  0  0  0  0
   -2.8422    0.6444    3.6338 H   0  0  0  0  0  0  0  0  0  0  0  0
   -4.5949   -2.8637    2.3856 H   0  0  0  0  0  0  0  0  0  0  0  0
   -4.0387   -2.4122    0.0091 H   0  0  0  0  0  0  0  0  0  0  0  0
   -1.9788   -3.3875   -3.0944 H   0  0  0  0  0  0  0  0  0  0  0  0
    0.1606   -3.3674   -2.9824 H   0  0  0  0  0  0  0  0  0  0  0  0
    3.1529   -2.5615   -1.4449 H   0  0  0  0  0  0  0  0  0  0  0  0
    2.4810   -3.3554   -2.8635 H   0  0  0  0  0  0  0  0  0  0  0  0
    3.1128   -1.7189   -3.0171 H   0  0  0  0  0  0  0  0  0  0  0  0
    3.1498   -0.0978   -1.4640 H   0  0  0  0  0  0  0  0  0  0  0  0
    2.1126    1.1481   -0.8324 H   0  0  0  0  0  0  0  0  0  0  0  0
    2.7883   -1.4231    0.7142 H   0  0  0  0  0  0  0  0  0  0  0  0
    1.8168   -0.1086    1.3244 H   0  0  0  0  0  0  0  0  0  0  0  0
    5.2322   -1.2652    0.6360 H   0  0  0  0  0  0  0  0  0  0  0  0
    7.2582   -0.1042    1.4049 H   0  0  0  0  0  0  0  0  0  0  0  0
    8.0744    1.7916    2.3318 H   0  0  0  0  0  0  0  0  0  0  0  0
    4.8985    3.3192    2.5106 H   0  0  0  0  0  0  0  0  0  0  0  0
    2.8514    2.1629    1.7408 H   0  0  0  0  0  0  0  0  0  0  0  0
  1  2  1  0
  2  3  1  0
  3  4  2  0
  3  5  1  0
  5  6  1  0
  6  7  1  0
  7  8  2  0
  8  9  1  0
  9 10  2  0
 10 11  1  0
 11 12  2  0
  6 13  1  0
 13 14  2  0
 14 15  1  0
 14 16  1  0
 16 17  2  0
 17 18  1  0
 17 19  1  0
 19 20  1  0
 20 21  1  0
 21 22  1  0
 22 23  2  0
 23 24  1  0
 24 25  2  0
 25 26  1  0
 25 27  1  0
 27 28  2  0
 19 29  1  0
 29 30  2  0
 12  7  1  0
 29 13  1  0
 28 22  1  0
  1 31  1  0
  1 32  1  0
  1 33  1  0
  5 34  1  0
  5 35  1  0
  6 36  1  6
  8 37  1  0
  9 38  1  0
 11 39  1  0
 12 40  1  0
 15 41  1  0
 16 42  1  0
 18 43  1  0
 18 44  1  0
 18 45  1  0
 20 46  1  0
 20 47  1  0
 21 48  1  0
 21 49  1  0
 23 50  1  0
 24 51  1  0
 26 52  1  0
 27 53  1  0
 28 54  1  0
M  END
>  <SMILES_raw>  (5) 
COC(=O)C[C@H](c1ccncc1)c1c(O)cc(C)n(CCc2ccc(O)cc2)c1=O

>  <SMILES_pH7.4>  (5) 
COC(=O)C[C@H](c1ccncc1)c1c(O)cc(C)n(CCc2ccc(O)cc2)c1=O

$$$$
